@<TRIPOS>MOLECULE
diamine.xyz
 16 16 0 0 0
SMALL
GASTEIGER

@<TRIPOS>ATOM
      1 C           0.3483    1.5250    0.0137 opls_916_CA	1  BEN        0.180
      2 C          -0.8671    0.8412   -0.0071 opls_145_CA    	1  BEN       -0.155
      3 C          -0.8994   -0.5579   -0.0205 opls_145_CA     	1  BEN       -0.155
      4 C           0.2829   -1.2979   -0.0182 opls_916_CA    	1  BEN        0.180
      5 C           1.4884   -0.6154    0.1454 opls_145_CA    	1  BEN       -0.155
      6 C           1.5208    0.7838    0.1637 opls_145_CA    	1  BEN       -0.155
      7 H          -1.8047    1.3894   -0.0034 opls_146_HA      1  BEN        0.155
      8 H          -1.8616   -1.0624   -0.0243 opls_146_HA      1  BEN        0.155
      9 H           2.4172   -1.1654    0.2706 opls_146_HA      1  BEN        0.155
     10 H           2.4729    1.2872    0.3051 opls_146_HA      1  BEN        0.155
     11 N           0.3722    2.9202    0.1268 opls_900_NT	1  BEN       -0.900
     12 H           1.2476    3.3352   -0.1766 opls_909_H 	1  BEN        0.360
     13 H          -0.4309    3.3725   -0.2989 opls_909_H       1  BEN        0.360
     14 N           0.2417   -2.6947    0.0635 opls_900_NT	1  BEN       -0.900
     15 H           1.0954   -3.1439   -0.2538 opls_909_H       1  BEN        0.360
     16 H          -0.5839   -3.0987   -0.3682 opls_909_H       1  BEN        0.360
@<TRIPOS>BOND
     1    16    14    1
     2    13    11    1
     3    15    14    1
     4    12    11    1
     5     8     3    1
     6     3     4   ar
     7     3     2   ar
     8     4    14    1
     9     4     5   ar
    10     2     7    1
    11     2     1   ar
    12     1    11    1
    13     1     6   ar
    14     5     6   ar
    15     5     9    1
    16     6    10    1
